cases/case300_tree.m
failed
function mpc = case300_tree

%% MATPOWER Case Format : Version 2
mpc.version = '2';

%%-----  Power Flow Data  -----%%
%% system MVA base
mpc.baseMVA = 1;

%% bus data
%	bus_i	type	Pd	Qd	Gs	Bs	area	Vm	Va	baseKV	zone	Vmax	Vmin
mpc.bus = [
	1	1	90	49	0	0	1	0.960019581	-55.8532299	115	1	1.06	0.94;
	2	1	56	15	0	0	1	1.03348344	-19.1978185	115	1	1.06	0.94;
	3	1	20	0	0	0	1	0.779502269	-54.268205	230	1	1.06	0.94;
	4	1	0	0	0	0	1	0.715072543	-50.2973037	345	1	1.06	0.94;
	5	1	353	130	0	0	1	0.932825358	-57.0602064	115	1	1.06	0.94;
	6	1	120	41	0	0	1	1.02868042	-19.7577838	115	1	1.06	0.94;
	7	1	0	0	0	0	1	0.813407906	-54.942909	230	1	1.06	0.94;
	8	2	63	14	0	0	1	1.0153	-25.7580058	115	1	1.06	0.94;
	9	1	96	43	0	0	1	0.912435719	-58.7606675	115	1	1.06	0.94;
	10	2	153	33	0	0	1	1.0205	-61.7793954	230	1	1.06	0.94;
	11	1	83	21	0	0	1	1.00976591	-60.5192316	115	1	1.06	0.94;
	12	1	0	0	0	0	1	0.895548841	-56.7657095	230	1	1.06	0.94;
	13	1	58	10	0	0	1	0.999533947	-63.4407992	115	1	1.06	0.94;
	14	1	160	60	0	0	1	0.855820728	-33.6004424	115	1	1.06	0.94;
	15	1	126.7	23	0	0	1	0.7599062	-38.8149992	115	1	1.06	0.94;
	16	1	0	0	0	0	1	0.45189422	-27.6340026	345	1	1.06	0.94;
	17	1	561	220	0	0	1	0.954383709	-53.1161411	115	1	1.06	0.94;
	19	1	0	0	0	0	1	0.86140296	173.379215	230	1	1.06	0.94;
	20	2	605	120	0	0	1	1.001	-65.2819021	115	1	1.06	0.94;
	21	1	77	1	0	0	1	0.92862895	-61.0529932	230	1	1.06	0.94;
	22	1	81	23	0	0	1	0.959400163	-63.9420898	115	1	1.06	0.94;
	23	1	21	7	0	0	1	1.0331128	-59.4314322	115	1	1.06	0.94;
	24	1	0	0	0	0	1	0.981796964	-56.7840156	230	1	1.06	0.94;
	25	1	45	12	0	0	1	0.987474574	-62.3512195	115	1	1.06	0.94;
	26	1	28	9	0	0	1	0.932127275	-66.4902395	115	1	1.06	0.94;
	27	1	69	13	0	0	1	0.874629029	-71.9062437	115	1	1.06	0.94;
	33	1	55	6	0	0	1	0.0939383084	-3.93449391	115	1	1.06	0.94;
	34	1	0	0	0	0	1	0.150618223	16.3110651	345	1	1.06	0.94;
	35	1	0	0	0	0	1	0.935549486	-13.9993923	115	1	1.06	0.94;
	36	1	0	0	0	0	1	0.8340668	-10.9193426	230	1	1.06	0.94;
	37	1	85	32	0	0	1	0.858468159	-32.2410121	115	1	1.06	0.94;
	38	1	155	18	0	0	1	1.19211658	-99.0572109	115	1	1.06	0.94;
	39	1	0	0	0	0	1	0.317668672	23.4251035	345	1	1.06	0.94;
	40	1	46	-21	0	0	1	0.0732558433	-9.85765816	115	1	1.06	0.94;
	41	1	86	0	0	0	1	0.952415555	-56.3449565	115	1	1.06	0.94;
	42	1	0	0	0	0	1	0.164412899	18.6256106	345	1	1.06	0.94;
	43	1	39	9	0	0	1	1.44614041	-146.257912	115	1	1.06	0.94;
	44	1	195	29	0	0	1	0.861757391	7.19880738	115	1	1.06	0.94;
	45	1	0	0	0	0	1	0.857813263	10.6721665	230	1	1.06	0.94;
	46	1	0	0	0	0	1	0.484408487	8.2832608	345	1	1.06	0.94;
	47	1	58	11.8	0	0	1	0.819276292	2.25837901	115	1	1.06	0.94;
	48	1	41	19	0	0	1	0.0482843513	154.41579	115	1	1.06	0.94;
	49	1	92	26	0	0	1	0.793366137	-21.7130076	115	1	1.06	0.94;
	51	1	-5	5	0	0	1	0.723845815	-24.9124885	115	1	1.06	0.94;
	52	1	61	28	0	0	1	0.650941348	-29.7351647	115	1	1.06	0.94;
	53	1	69	3	0	0	1	1.49451492	-159.552305	115	1	1.06	0.94;
	54	1	10	1	0	0	1	1.03590781	51.3380429	115	1	1.06	0.94;
	55	1	22	10	0	0	1	1.04032513	51.8670486	115	1	1.06	0.94;
	57	1	98	20	0	0	1	1.03815171	50.5840202	115	1	1.06	0.94;
	58	1	14	1	0	0	1	0.972030135	48.0297247	115	1	1.06	0.94;
	59	1	218	106	0	0	1	0.95721263	47.2194397	115	1	1.06	0.94;
	60	1	0	0	0	0	1	0.857547381	25.488662	230	1	1.06	0.94;
	61	1	227	110	0	0	1	0.970619274	48.380064	115	1	1.06	0.94;
	62	1	0	0	0	0	1	0.962921998	47.8057633	230	1	1.06	0.94;
	63	2	70	30	0	0	1	0.9583	26.7710133	115	1	1.06	0.94;
	64	1	0	0	0	0	1	0.925029502	32.3242903	230	1	1.06	0.94;
	69	1	0	0	0	0	1	0.816054068	-23.037848	115	1	1.06	0.94;
	70	1	56	20	0	0	1	1.42139117	164.019349	115	1	1.06	0.94;
	71	1	116	38	0	0	1	1.40723277	158.594645	115	1	1.06	0.94;
	72	1	57	19	0	0	1	0.946858205	-16.0052984	115	1	1.06	0.94;
	73	1	224	71	0	0	1	1.77433847	101.7515	115	1	1.06	0.94;
	74	1	0	0	0	0	1	1.73167979	56.6091663	230	1	1.06	0.94;
	76	2	208	107	0	0	1	0.9632	-15.6391772	115	1	1.06	0.94;
	77	1	74	28	0	0	1	0.982432605	-12.4384984	115	1	1.06	0.94;
	78	1	0	0	0	0	1	0.989084251	-11.4506157	115	1	1.06	0.94;
	79	1	48	14	0	0	1	0.982971573	-12.0234406	115	1	1.06	0.94;
	80	1	28	7	0	0	1	0.87926999	-18.3630963	115	1	1.06	0.94;
	81	1	0	0	0	0	1	0.733089458	-6.58550324	345	1	1.06	0.94;
	84	2	37	13	0	0	1	1.025	-4.55722444	115	1	1.06	0.94;
	85	1	0	0	0	0	1	0.591436949	-31.9043693	230	1	1.06	0.94;
	86	1	0	0	0	0	1	0.763328776	-158.472315	230	1	1.06	0.94;
	87	1	0	0	0	0	1	0.978929209	87.8698138	230	1	1.06	0.94;
	88	1	0	0	0	0	1	0.777462587	-8.27541416	230	1	1.06	0.94;
	89	1	44.2	0	0	0	1	1.0306042	-36.6483203	115	1	1.06	0.94;
	90	1	66	0	0	0	1	1.0254255	-167.750626	115	1	1.06	0.94;
	91	2	17.4	0	0	0	1	1.052	-33.8676166	115	1	1.06	0.94;
	92	2	15.8	0	0	0	1	1.052	-161.639521	115	1	1.06	0.94;
	94	1	60.3	0	0	0	1	0.986198437	81.0915856	115	1	1.06	0.94;
	97	1	39.9	0	0	0	1	0.974367347	-37.5791438	115	1	1.06	0.94;
	98	2	66.7	0	0	0	1	1	-38.389669	115	1	1.06	0.94;
	99	1	83.5	0	0	0	1	0.890219846	-153.50724	115	1	1.06	0.94;
	100	1	0	0	0	0	1	0.974367347	-37.5791438	115	1	1.06	0.94;
	102	1	77.8	0	0	0	1	0.8749153	-47.0614292	115	1	1.06	0.94;
	103	1	32	0	0	0	1	1.04525915	-164.041242	115	1	1.06	0.94;
	104	1	8.6	0	0	0	1	0.873924606	-46.719459	115	1	1.06	0.94;
	105	1	49.6	0	0	0	1	0.0829335688	-17.7488084	115	1	1.06	0.94;
	107	1	4.6	0	0	0	1	1.18224502	-95.4622938	115	1	1.06	0.94;
	108	2	112.1	0	0	0	1	0.99	-156.834363	115	1	1.06	0.94;
	109	1	30.7	0	0	0	1	0.896923207	-164.149868	115	1	1.06	0.94;
	110	1	63	0	0	0	1	0.619894259	125.674502	115	1	1.06	0.94;
	112	1	19.6	0	0	0	1	0.661888293	-45.4888257	115	1	1.06	0.94;
	113	1	26.2	0	0	0	1	0.805212126	-0.0969500605	115	1	1.06	0.94;
	114	1	18.2	0	0	0	1	0.933772457	-167.529242	115	1	1.06	0.94;
	115	1	0	0	0	0	1	0.889497612	176.423066	115	2	1.06	0.94;
	116	1	0	0	0	0	1	1.02552843	174.217247	115	2	1.06	0.94;
	117	1	0	0	0	325	1	0.871545069	-171.978413	115	2	1.06	0.94;
	118	1	14.1	650	0	0	1	0.869388309	-171.309631	115	2	1.06	0.94;
	119	2	0	0	0	0	1	1.0435	-162.735397	115	2	1.06	0.94;
	120	1	777	215	0	55	1	0.954084879	-178.442073	115	2	1.06	0.94;
	121	1	535	55	0	0	1	0.958208589	179.120737	115	2	1.06	0.94;
	122	1	229.1	11.8	0	0	1	0.889497612	176.423066	115	2	1.06	0.94;
	123	1	78	1.4	0	0	1	0.989936903	168.135759	115	2	1.06	0.94;
	124	2	276.4	59.3	0	0	1	1.0233	172.8596	115	2	1.06	0.94;
	125	2	514.8	82.7	0	0	1	1.0103	169.481881	115	2	1.06	0.94;
	126	1	57.9	5.1	0	0	1	0.865057395	176.39122	115	2	1.06	0.94;
	127	1	380.8	37	0	0	1	0.868907784	-89.1181729	230	2	1.06	0.94;
	128	1	0	0	0	0	1	0.839400029	-79.2233802	230	2	1.06	0.94;
	129	1	0	0	0	0	1	0.929800373	-90.6147554	230	2	1.06	0.94;
	130	1	0	0	0	0	1	0.840633206	-65.550767	230	2	1.06	0.94;
	131	1	0	0	0	0	1	0.798929107	-65.550767	230	2	1.06	0.94;
	132	1	0	0	0	0	1	0.739965882	-73.6401823	230	2	1.06	0.94;
	133	1	0	0	0	0	1	0.974541143	-95.881845	230	2	1.06	0.94;
	134	1	0	0	0	0	1	0.927466558	-85.4596945	230	2	1.06	0.94;
	135	1	169.2	41.6	0	0	1	0.925744969	-83.1637175	230	2	1.06	0.94;
	136	1	55.2	18.2	0	0	1	0.986463347	-72.1320684	230	2	1.06	0.94;
	137	1	273.6	99.8	0	0	1	1.00981469	-93.7241796	230	2	1.06	0.94;
	138	2	1019.2	135.2	0	0	1	1.055	-102.984288	230	2	1.06	0.94;
	139	1	595	83.3	0	0	1	0.994254347	-97.5126952	115	2	1.06	0.94;
	140	1	387.7	114.7	0	0	1	1.00576373	-97.5304839	230	2	1.06	0.94;
	141	2	145	58	0	0	1	1.051	-100.625196	230	2	1.06	0.94;
	142	1	56.5	24.5	0	0	1	0.940236845	58.5017463	230	2	1.06	0.94;
	143	2	89.5	35.5	0	0	1	1.0435	65.838347	230	2	1.06	0.94;
	144	1	0	0	0	0	1	0.966088541	49.2440625	230	2	1.06	0.94;
	145	1	24	14	0	0	1	0.966137131	71.260186	230	2	1.06	0.94;
	146	2	0	0	0	0	1	1.0528	80.5217788	230	2	1.06	0.94;
	147	2	0	0	0	0	1	1.0528	86.2619185	230	2	1.06	0.94;
	148	1	63	25	0	0	1	1.07658107	63.2335076	230	2	1.06	0.94;
	149	2	0	0	0	0	1	1.0735	79.065798	230	2	1.06	0.94;
	150	1	0	0	0	0	1	0.777790541	-58.1778863	230	2	1.06	0.94;
	151	1	0	0	0	0	1	0.870789793	-69.3669683	230	2	1.06	0.94;
	152	2	17	9	0	0	1	1.0535	-64.9464601	230	2	1.06	0.94;
	153	2	0	0	0	0	1	1.0435	-79.5824306	230	2	1.06	0.94;
	154	1	70	5	0	34.5	1	0.965985336	-98.628612	115	2	1.06	0.94;
	155	1	200	50	0	0	1	0.969570745	-82.6033695	230	2	1.06	0.94;
	156	2	75	50	0	0	1	0.963	-83.9190563	115	2	1.06	0.94;
	157	1	123.5	-24.3	0	0	1	0.894756509	179.618835	230	2	1.06	0.94;
	158	1	0	0	0	0	1	0.886959671	-179.866912	230	2	1.06	0.94;
	159	1	33	16.5	0	0	1	0.898767407	-177.929624	230	2	1.06	0.94;
	160	1	0	0	0	0	1	0.9977175	172.8596	230	2	1.06	0.94;
	161	1	35	15	0	0	1	1.01424741	-80.8923837	230	2	1.06	0.94;
	162	1	85	24	0	0	1	0.903258731	-68.7735104	230	2	1.06	0.94;
	163	1	0	0.4	0	0	1	0.939843067	-88.1966071	230	2	1.06	0.94;
	164	1	0	0	0	-212	1	0.894310751	-79.4284341	230	2	1.06	0.94;
	165	1	0	0	0	0	1	0.941281423	-59.7983164	230	2	1.06	0.94;
	166	1	0	0	0	-103	1	0.964474259	-55.5259469	230	2	1.06	0.94;
	167	1	299.9	95.7	0	0	1	0.592362023	-91.7462268	230	2	1.06	0.94;
	168	1	0	0	0	0	1	0.840633206	-65.550767	230	2	1.06	0.94;
	169	1	0	0	0	0	1	0.974541143	-95.881845	230	2	1.06	0.94;
	170	2	481.8	205	0	0	1	0.929	-77.6395031	115	2	1.06	0.94;
	171	2	763.6	291.1	0	0	1	0.9829	-100.515186	115	2	1.06	0.94;
	172	1	26.5	0	0	0	1	1.04505624	-109.44965	115	2	1.06	0.94;
	173	1	163.5	43	0	53	1	0.955684945	-130.602458	115	2	1.06	0.94;
	174	1	0	0	0	0	1	1.06061739	-106.448228	115	2	1.06	0.94;
	175	1	176	83	0	0	1	0.883671643	52.5844332	115	2	1.06	0.94;
	176	2	5	4	0	0	1	1.0522	88.3519725	115	2	1.06	0.94;
	177	2	28	12	0	0	1	1.0077	78.4227829	115	2	1.06	0.94;
	178	1	427.4	173.6	0	0	1	0.870229644	65.2418114	115	2	1.06	0.94;
	179	1	74	29	0	45	1	0.9847204	46.2268021	115	2	1.06	0.94;
	180	1	69.5	49.3	0	0	1	0.925746296	68.3840911	115	2	1.06	0.94;
	181	1	73.4	0	0	0	1	1.06470887	-87.6815644	230	2	1.06	0.94;
	182	1	240.7	89	0	0	1	1.01419693	-98.2951515	230	2	1.06	0.94;
	183	1	40	4	0	0	1	0.969468038	-84.0550261	115	2	1.06	0.94;
	184	1	136.8	16.6	0	0	1	0.998211714	-84.4476318	230	2	1.06	0.94;
	185	2	0	0	0	0	1	1.0522	-82.0672612	230	2	1.06	0.94;
	186	2	59.8	24.3	0	0	1	1.065	-87.0433607	230	2	1.06	0.94;
	187	2	59.8	24.3	0	0	1	1.065	-87.3737291	230	2	1.06	0.94;
	188	1	182.6	43.6	0	0	1	1.03161499	-92.0286578	230	2	1.06	0.94;
	189	1	7	2	0	0	1	0.991801421	-18.4359292	66	3	1.06	0.94;
	190	2	0	0	0	-150	1	1.0551	-12.2733346	345	3	1.06	0.94;
	191	2	489	53	0	0	1	1.0435	19.5845988	230	3	1.06	0.94;
	192	1	800	72	0	0	1	0.883513783	-4.88227945	230	3	1.06	0.94;
	193	1	0	0	0	0	1	0.893686428	-30.9581705	66	3	1.06	0.94;
	194	1	0	0	0	0	1	0.987173099	-10.2517791	345	3	1.06	0.94;
	195	1	0	0	0	0	1	0.878733748	-11.5014782	345	3	1.06	0.94;
	196	1	10	3	0	0	1	0.933544968	-19.3108466	115	3	1.06	0.94;
	197	1	43	14	0	0	1	0.963390382	-17.5317702	115	3	1.06	0.94;
	198	2	64	21	0	0	1	1.015	-13.3656592	115	3	1.06	0.94;
	199	1	35	12	0	0	1	0.945920314	-18.1994038	115	3	1.06	0.94;
	200	1	27	12	0	0	1	0.933983721	-17.8421953	115	3	1.06	0.94;
	201	1	41	14	0	0	1	0.821348399	-26.5265981	66	1	1.06	0.94;
	202	1	38	13	0	0	1	0.88340726	-19.8402229	66	3	1.06	0.94;
	203	1	42	14	0	0	1	1.00466829	-14.380445	115	3	1.06	0.94;
	204	1	72	24	0	0	1	0.889885683	-30.792467	66	3	1.06	0.94;
	205	1	0	-5	0	0	1	0.893686428	-30.9581705	66	3	1.06	0.94;
	206	1	12	2	0	0	1	0.972834686	-167.311396	66	3	1.06	0.94;
	207	1	-21	-14.2	0	0	1	0.98380177	-166.730676	66	1	1.06	0.94;
	208	1	7	2	0	0	1	0.987519666	-18.7863434	66	3	1.06	0.94;
	209	1	38	13	0	0	1	1.00281709	-17.822955	66	3	1.06	0.94;
	210	1	0	0	0	0	1	0.974208327	-16.2778341	115	3	1.06	0.94;
	211	1	96	7	0	0	1	0.895312678	-16.3143558	115	3	1.06	0.94;
	212	1	0	0	0	0	1	0.897074791	-15.0858843	138	3	1.06	0.94;
	213	2	0	0	0	0	1	1.01	-0.218322706	16.5	3	1.06	0.94;
	214	1	22	16	0	0	1	0.985250792	-6.09111986	138	3	1.06	0.94;
	215	1	47	26	0	0	1	0.965734173	-8.83797723	138	3	1.06	0.94;
	216	1	176	105	0	0	1	0.945460304	-11.9288515	138	3	1.06	0.94;
	217	1	100	75	0	0	1	0.981347671	-12.96199	138	3	1.06	0.94;
	218	1	131	96	0	0	1	0.968391437	-12.6168261	138	3	1.06	0.94;
	219	1	0	0	0	0	1	1.0085554	-12.2648071	345	3	1.06	0.94;
	220	2	285	100	0	0	1	1.008	-9.56028557	138	3	1.06	0.94;
	221	2	171	70	0	0	1	1	-15.4436688	138	3	1.06	0.94;
	222	2	328	188	0	0	1	1.05	-14.5904472	20	3	1.06	0.94;
	223	1	428	232	0	0	1	0.995182744	-15.5995558	138	3	1.06	0.94;
	224	1	173	99	0	0	1	0.983296626	-13.8414597	230	3	1.06	0.94;
	225	1	410	40	0	0	1	0.95846093	-3.95245442	230	3	1.06	0.94;
	226	1	0	0	0	0	1	0.995609965	-13.5817777	230	3	1.06	0.94;
	227	2	538	369	0	0	1	1	-18.7991042	27	3	1.06	0.94;
	228	1	223	148	0	0	1	0.990668885	-12.4412414	138	3	1.06	0.94;
	229	1	96	46	0	0	1	1.00808216	-11.4894575	138	3	1.06	0.94;
	230	2	0	0	0	0	1	1.04	-5.18679212	20	3	1.06	0.94;
	231	1	159	107	0	-300	1	1.02416885	-12.5989542	345	3	1.06	0.94;
	232	1	448	143	0	0	1	1.01112784	-14.689132	138	3	1.06	0.94;
	233	2	404	212	0	0	1	1	-17.53233	66	3	1.06	0.94;
	234	1	572	244	0	0	1	1.02456861	-8.44312209	138	3	1.06	0.94;
	235	1	269	157	0	0	1	1.00894329	-8.80296899	138	3	1.06	0.94;
	236	2	0	0	0	0	1	1.0165	-2.89652379	20	3	1.06	0.94;
	237	1	0	0	0	0	1	1.02152366	-12.402136	345	3	1.06	0.94;
	238	2	255	149	0	-150	1	1.01	-8.73167611	138	3	1.06	0.94;
	239	2	0	0	0	0	1	1	-3.65286276	138	3	1.06	0.94;
	240	1	0	0	0	-140	1	1.02353402	-11.7904769	230	3	1.06	0.94;
	241	2	0	0	0	0	1	1.05	-7.71638183	20	3	1.06	0.94;
	242	2	0	0	0	0	1	0.993	-6.11240547	138	3	1.06	0.94;
	243	2	8	3	0	0	1	1.01	-10.0475884	66	3	1.06	0.94;
	244	1	0	0	0	0	1	0.986196991	-11.3786724	66	3	1.06	0.94;
	245	1	61	30	0	0	1	0.976303467	-9.31037959	66	3	1.06	0.94;
	246	1	77	33	0	0	1	0.950544583	-13.5790601	66	3	1.06	0.94;
	247	1	61	30	0	0	1	0.979689586	-10.2712574	66	3	1.06	0.94;
	248	1	29	14	0	45.6	1	1.00342384	-13.6205851	66	3	1.06	0.94;
	249	1	29	14	0	0	1	1.00275143	-14.0221587	66	3	1.06	0.94;
	250	1	-23	-17	0	0	1	1.04600314	-12.260806	66	3	1.06	0.94;
	281	1	-33.1	-29.4	0	0	1	1.02486361	-11.7175533	230	3	1.06	0.94;
	319	1	115.8	-24	0	0	1	0.986732425	-61.5459829	230	1	1.06	0.94;
	320	1	2.4	-12.6	0	0	1	0.948269067	-67.0436898	115	1	1.06	0.94;
	322	1	2.4	-3.9	0	0	1	0.876047394	-46.5376519	115	1	1.06	0.94;
	323	1	-14.9	26.5	0	0	1	1.55525145	-172.98862	230	1	1.06	0.94;
	324	1	24.7	-1.2	0	0	1	0.972308185	-159.946794	115	1	1.06	0.94;
	526	1	145.3	-34.9	0	0	1	0.94072599	10.0637376	115	1	1.06	0.94;
	528	1	28.1	-20.5	0	0	1	1.42768205	166.881589	115	1	1.06	0.94;
	531	1	14	2.5	0	0	1	0.937470089	-17.7083155	115	1	1.06	0.94;
	552	1	-11.1	-1.4	0	0	1	0.995712067	-10.7715419	115	1	1.06	0.94;
	562	1	50.5	17.4	0	0	1	2.30915145	152.442987	230	1	1.06	0.94;
	609	1	29.6	0.6	0	0	1	0.954666355	-16.2588262	115	1	1.06	0.94;
	664	1	-113.7	76.7	0	0	1	0.960695659	-7.70177215	345	3	1.06	0.94;
	1190	1	100.31	29.17	0	0	1	1.0128756	-163.997904	86	2	1.06	0.94;
	1200	1	-100	34.17	0	0	1	1.01971101	-177.184433	86	2	1.06	0.94;
	1201	1	0	0	0	0	1	0.869388309	-171.309631	115	2	1.06	0.94;
	2040	1	0	0	0	0	1	0.925817961	-20.2838664	115	3	1.06	0.94;
	7001	2	0	0	0	0	1	1.0507	-50.665576	13.8	1	1.06	0.94;
	7002	2	0	0	0	0	1	1.0507	-14.4493766	13.8	1	1.06	0.94;
	7003	2	0	0	0	0	1	1.0323	-45.1530853	13.8	1	1.06	0.94;
	7011	2	0	0	0	0	1	1.0145	-58.0016429	13.8	1	1.06	0.94;
	7012	2	0	0	0	0	1	1.0507	-49.6807372	13.8	1	1.06	0.94;
	7017	2	0	0	0	0	1	1.0507	-50.1908646	13.8	1	1.06	0.94;
	7023	2	0	0	0	0	1	1.0507	-57.1849293	13.8	1	1.06	0.94;
	7024	2	0	0	0	0	1	1.029	-50.048548	13.8	1	1.06	0.94;
	7039	2	0	0	0	0	1	1.05	38.9171212	20	1	1.06	0.94;
	7044	2	0	0	0	0	1	1.0145	11.2404669	13.8	1	1.06	0.94;
	7049	3	0	0	0	0	1	1.0507	0	13.8	1	1.06	0.94;
	7055	2	0	0	0	0	1	0.9967	56.4646294	13.8	1	1.06	0.94;
	7057	2	0	0	0	0	1	1.0212	55.1184287	13.8	1	1.06	0.94;
	7061	2	0	0	0	0	1	1.0145	53.9277927	13.8	1	1.06	0.94;
	7062	2	0	0	0	0	1	1.0017	55.0750145	13.8	1	1.06	0.94;
	7071	2	0	0	0	0	1	0.9893	159.826634	13.8	1	1.06	0.94;
	7130	2	0	0	0	0	1	1.0507	-49.2274125	13.8	2	1.06	0.94;
	7139	2	0	0	0	0	1	1.0507	-91.0877217	13.8	2	1.06	0.94;
	7166	2	0	0	0	0	1	1.0145	-50.532785	13.8	2	1.06	0.94;
	9001	1	0	0	0	0	1	0.852229691	-32.2731416	115	9	1.06	0.94;
	9002	2	4.2	0	0	0	1	0.9945	-43.9260608	6.6	9	1.06	0.94;
	9003	1	2.71	0.94	0.14	2.4	1	0.69766066	-50.0354603	6.6	9	1.06	0.94;
	9004	1	0.86	0.28	0	0	1	0.689116178	-50.2493849	6.6	9	1.06	0.94;
	9005	1	0	0	0	0	1	0.858295062	-32.4432082	115	9	1.06	0.94;
	9006	1	0	0	0	0	1	0.79450741	-40.5946799	6.6	9	1.06	0.94;
	9007	1	0	0	0	0	1	0.790754222	-40.975616	6.6	9	1.06	0.94;
	9012	1	0	0	0	0	1	0.939940146	-39.84434	6.6	9	1.06	0.94;
	9021	1	4.75	1.56	0	0	1	0.988721543	-44.1467108	6.6	9	1.06	0.94;
	9022	1	1.53	0.53	0.08	0	1	0.964884438	-46.719155	0.6	9	1.06	0.94;
	9023	1	0	0	0	0	1	0.974703556	-44.4558763	6.6	9	1.06	0.94;
	9024	1	1.35	0.47	0.07	0	1	0.970503942	-46.4920611	0.6	9	1.06	0.94;
	9025	1	0.45	0.16	0.02	0	1	0.964756195	-45.5170466	0.6	9	1.06	0.94;
	9026	1	0.45	0.16	0.02	0	1	0.965606087	-45.4277855	0.6	9	1.06	0.94;
	9031	1	1.84	0.64	0.1	0	1	0.626315731	-58.6947684	0.6	9	1.06	0.94;
	9032	1	1.39	0.48	0.07	0	1	0.644181664	-56.7314682	0.6	9	1.06	0.94;
	9033	1	1.89	0.65	0.1	0	1	0.621901678	-59.2267892	0.6	9	1.06	0.94;
	9034	1	1.55	0.54	0.08	1.72	1	0.701328351	-52.2027218	0.6	9	1.06	0.94;
	9035	1	1.66	0.58	0.09	0	1	0.653235349	-55.6488271	0.6	9	1.06	0.94;
	9036	1	3.03	1	0	0	1	0.665611948	-54.9010873	2.3	9	1.06	0.94;
	9037	1	1.86	0.64	0.1	0	1	0.662400183	-54.6837449	0.6	9	1.06	0.94;
	9038	1	2.58	0.89	0.14	0	1	0.637043138	-57.683474	0.6	9	1.06	0.94;
	9041	1	1.01	0.35	0.05	0	1	0.671561744	-52.6529033	0.6	9	1.06	0.94;
	9042	1	0.81	0.28	0.04	0	1	0.653530325	-54.542429	0.6	9	1.06	0.94;
	9043	1	1.6	0.52	0	0	1	0.672896119	-52.8631386	2.3	9	1.06	0.94;
	9044	1	0	0	0	0	1	0.691977678	-50.1870702	6.6	9	1.06	0.94;
	9051	2	35.81	0	0	0	1	1	-42.0403092	13.8	9	1.06	0.94;
	9052	1	30	23	0	0	1	0.796449018	-40.1927479	13.8	9	1.06	0.94;
	9053	2	26.48	0	0	0	1	1	-40.074516	13.8	9	1.06	0.94;
	9054	2	0	0	0	0	1	1	-27.2993027	13.8	9	1.06	0.94;
	9055	2	0	0	0	0	1	1	-28.1130923	13.8	9	1.06	0.94;
	9071	1	1.02	0.35	0.05	0	1	0.771604679	-43.3942265	0.6	9	1.06	0.94;
	9072	1	1.02	0.35	0.05	0	1	0.777693031	-42.6418875	0.6	9	1.06	0.94;
	9121	1	3.8	1.25	0	0	1	0.916065561	-42.1134828	6.6	9	1.06	0.94;
	9533	1	1.19	0.41	0.1	0	1	1.04051734	-40.5883302	2.3	9	1.06	0.94;
];

%% generator data
%	bus	Pg	Qg	Qmax	Qmin	Vg	mBase	status	Pmax	Pmin	Pc1	Pc2	Qc1min	Qc1max	Qc2min	Qc2max	ramp_agc	ramp_10	ramp_30	ramp_q	apf
mpc.gen = [
	8	0	356.849613	10	-10	1.0153	100	1	100	0	0	0	0	0	0	0	0	0	0	0	0;
	10	0	254.02883	20	-20	1.0205	100	1	100	0	0	0	0	0	0	0	0	0	0	0	0;
	20	0	343.506537	20	-20	1.001	100	1	100	0	0	0	0	0	0	0	0	0	0	0	0;
	63	0	92.0447196	25	-25	0.9583	100	1	100	0	0	0	0	0	0	0	0	0	0	0	0;
	76	0	341.964039	35	12	0.9632	100	1	100	0	0	0	0	0	0	0	0	0	0	0	0;
	84	375	135.617471	240	-240	1.025	100	1	475	0	0	0	0	0	0	0	0	0	0	0	0;
	91	155	80.0668251	96	-11	1.052	100	1	255	0	0	0	0	0	0	0	0	0	0	0	0;
	92	290	1255.85054	153	-153	1.052	100	1	390	0	0	0	0	0	0	0	0	0	0	0	0;
	98	68	75.0799549	56	-30	1	100	1	168	0	0	0	0	0	0	0	0	0	0	0	0;
	108	117	2516.98954	77	-24	0.99	100	1	217	0	0	0	0	0	0	0	0	0	0	0	0;
	119	1930	1362.70153	1500	-500	1.0435	100	1	2030	0	0	0	0	0	0	0	0	0	0	0	0;
	124	240	150.524353	120	-60	1.0233	100	1	340	0	0	0	0	0	0	0	0	0	0	0	0;
	125	0	875.30346	200	-25	1.0103	100	1	100	0	0	0	0	0	0	0	0	0	0	0	0;
	138	0	375.712919	350	-125	1.055	100	1	100	0	0	0	0	0	0	0	0	0	0	0	0;
	141	281	158.186255	75	-50	1.051	100	1	381	0	0	0	0	0	0	0	0	0	0	0	0;
	143	696	474.749426	300	-100	1.0435	100	1	796	0	0	0	0	0	0	0	0	0	0	0	0;
	146	84	176.6634	35	-15	1.0528	100	1	184	0	0	0	0	0	0	0	0	0	0	0	0;
	147	217	-20.4032957	100	-50	1.0528	100	1	317	0	0	0	0	0	0	0	0	0	0	0	0;
	149	103	67.7761036	50	-25	1.0735	100	1	203	0	0	0	0	0	0	0	0	0	0	0	0;
	152	372	160.038681	175	-50	1.0535	100	1	472	0	0	0	0	0	0	0	0	0	0	0	0;
	153	216	91.9565987	90	-50	1.0435	100	1	316	0	0	0	0	0	0	0	0	0	0	0	0;
	156	0	202.220914	15	-10	0.963	100	1	100	0	0	0	0	0	0	0	0	0	0	0	0;
	170	205	468.715571	90	-40	0.929	100	1	305	0	0	0	0	0	0	0	0	0	0	0	0;
	171	0	418.559172	150	-50	0.9829	100	1	100	0	0	0	0	0	0	0	0	0	0	0	0;
	176	228	12.1200459	90	-45	1.0522	100	1	328	0	0	0	0	0	0	0	0	0	0	0	0;
	177	84	161.826977	35	-15	1.0077	100	1	184	0	0	0	0	0	0	0	0	0	0	0	0;
	185	200	215.153318	80	-50	1.0522	100	1	300	0	0	0	0	0	0	0	0	0	0	0	0;
	186	1200	393.251983	400	-100	1.065	100	1	1300	0	0	0	0	0	0	0	0	0	0	0	0;
	187	1200	393.432759	400	-100	1.065	100	1	1300	0	0	0	0	0	0	0	0	0	0	0	0;
	190	475	1755.23936	300	-300	1.0551	100	1	575	0	0	0	0	0	0	0	0	0	0	0	0;
	191	1973	792.809956	1000	-1000	1.0435	100	1	2073	0	0	0	0	0	0	0	0	0	0	0	0;
	198	424	249.651053	260	-260	1.015	100	1	524	0	0	0	0	0	0	0	0	0	0	0	0;
	213	272	61.6302432	150	-150	1.01	100	1	372	0	0	0	0	0	0	0	0	0	0	0	0;
	220	100	238.970465	60	-60	1.008	100	1	200	0	0	0	0	0	0	0	0	0	0	0	0;
	221	450	376.456827	320	-320	1	100	1	550	0	0	0	0	0	0	0	0	0	0	0	0;
	222	250	249.817787	300	-300	1.05	100	1	350	0	0	0	0	0	0	0	0	0	0	0	0;
	227	303	334.967823	300	-300	1	100	1	403	0	0	0	0	0	0	0	0	0	0	0	0;
	230	345	170.222874	250	-250	1.04	100	1	445	0	0	0	0	0	0	0	0	0	0	0	0;
	233	300	195.267635	500	-500	1	100	1	400	0	0	0	0	0	0	0	0	0	0	0	0;
	236	600	384.308276	300	-300	1.0165	100	1	700	0	0	0	0	0	0	0	0	0	0	0	0;
	238	250	321.516417	200	-200	1.01	100	1	350	0	0	0	0	0	0	0	0	0	0	0	0;
	239	550	68.3847608	400	-400	1	100	1	650	0	0	0	0	0	0	0	0	0	0	0	0;
	241	575.43	198.753012	600	-600	1.05	100	1	675.43	0	0	0	0	0	0	0	0	0	0	0	0;
	242	170	91.9047008	100	40	0.993	100	1	270	0	0	0	0	0	0	0	0	0	0	0	0;
	243	84	62.5806416	80	40	1.01	100	1	184	0	0	0	0	0	0	0	0	0	0	0	0;
	7001	467	509.009818	210	-210	1.0507	100	1	567	0	0	0	0	0	0	0	0	0	0	0	0;
	7002	623	106.756528	280	-280	1.0507	100	1	723	0	0	0	0	0	0	0	0	0	0	0	0;
	7003	1210	2572.33938	420	-420	1.0323	100	1	1310	0	0	0	0	0	0	0	0	0	0	0	0;
	7011	234	30.1170522	100	-100	1.0145	100	1	334	0	0	0	0	0	0	0	0	0	0	0	0;
	7012	372	545.519674	224	-224	1.0507	100	1	472	0	0	0	0	0	0	0	0	0	0	0	0;
	7017	330	1094.16856	350	0	1.0507	100	1	430	0	0	0	0	0	0	0	0	0	0	0	0;
	7023	185	83.9701822	120	0	1.0507	100	1	285	0	0	0	0	0	0	0	0	0	0	0	0;
	7024	410	192.195715	224	-224	1.029	100	1	510	0	0	0	0	0	0	0	0	0	0	0	0;
	7039	500	2693.36123	200	-200	1.05	100	1	600	0	0	0	0	0	0	0	0	0	0	0	0;
	7044	37	128.748543	42	0	1.0145	100	1	137	0	0	0	0	0	0	0	0	0	0	0	0;
	7049	2487.03994	2657.46007	10	0	1.0507	100	1	2399.01	0	0	0	0	0	0	0	0	0	0	0	0;
	7055	45	11.381128	25	0	0.9967	100	1	145	0	0	0	0	0	0	0	0	0	0	0	0;
	7057	165	80.5055315	90	-90	1.0212	100	1	265	0	0	0	0	0	0	0	0	0	0	0	0;
	7061	400	206.425584	150	-150	1.0145	100	1	500	0	0	0	0	0	0	0	0	0	0	0	0;
	7062	400	325.573163	150	0	1.0017	100	1	500	0	0	0	0	0	0	0	0	0	0	0	0;
	7071	116	-558.865141	87	0	0.9893	100	1	216	0	0	0	0	0	0	0	0	0	0	0	0;
	7130	1292	1328.08501	600	-100	1.0507	100	1	1392	0	0	0	0	0	0	0	0	0	0	0	0;
	7139	700	394.423509	325	-125	1.0507	100	1	800	0	0	0	0	0	0	0	0	0	0	0	0;
	7166	553	353.664127	300	-200	1.0145	100	1	653	0	0	0	0	0	0	0	0	0	0	0	0;
	9002	0	18.4302048	2	-2	0.9945	100	1	100	0	0	0	0	0	0	0	0	0	0	0	0;
	9051	0	51.8657407	17.35	-17.35	1	100	1	100	0	0	0	0	0	0	0	0	0	0	0	0;
	9053	0	50.1083275	12.83	-12.8	1	100	1	100	0	0	0	0	0	0	0	0	0	0	0	0;
	9054	50	118.945344	38	-38	1	100	1	150	0	0	0	0	0	0	0	0	0	0	0	0;
	9055	8	22.479021	6	-6	1	100	1	108	0	0	0	0	0	0	0	0	0	0	0	0;
];

%% branch data
%	fbus	tbus	r	x	b	rateA	rateB	rateC	ratio	angle	status	angmin	angmax	Pf	Qf	Pt	Qt
mpc.branch = [
	1	5	1e-05	6e-05	0	9900	0	0	0	0	1	-360	360	376.9926	375.5959	-373.9198	-357.1594;
	7001	1	0	0.0001953	0	9900	0	0	1	0	1	-360	360	466.9941	509.0098	-466.9941	-424.5944;
	2	6	1e-05	9e-05	0	9900	0	0	0	0	1	-360	360	120.1520	42.3677	-120.0000	-41.0000;
	2	8	6e-05	0.00027	0	9900	0	0	0	0	1	-360	360	443.2290	-3.4485	-432.1927	53.1122;
	7002	2	1e-05	0.000146	0	9900	0	0	1	0	1	-360	360	623.0000	106.7565	-619.3810	-53.9193;
	3	4	0	5e-05	0	9900	0	0	0.971	0	1	-360	360	-795.0547	1435.8106	795.0547	-1226.8246;
	3	7	0	3e-05	0	9900	0	0	0	0	1	-360	360	248.8772	-879.5186	-248.8772	920.7692;
	3	19	8e-05	0.00069	0	9900	0	0	0	0	1	-360	360	885.3717	1433.5570	-511.5919	1790.2938;
	3	150	1e-05	7e-05	0	9900	0	0	0	0	1	-360	360	584.2388	-44.2446	-578.5891	83.7928;
	7003	3	0	0.0001054	0	9900	0	0	1	0	1	-360	360	1209.4529	2572.3394	-1209.4529	-1773.1967;
	4	16	2e-05	0.00019	0	9900	0	0	0	0	1	-360	360	-531.3418	1177.7339	596.6376	-557.4237;
	7	5	0	0.00039	0	9900	0	0	0.948	0	1	-360	360	75.8222	-163.1640	-75.8222	180.3126;
	5	9	6e-05	0.00029	0	9900	0	0	0	0	1	-360	360	96.7872	46.8537	-95.9899	-43.0001;
	7	12	1e-05	9e-05	0	9900	0	0	0	0	1	-360	360	173.2825	-757.5367	-164.1553	839.6820;
	8	14	0.00013	0.00042	0	9900	0	0	0	0	1	-360	360	371.9731	289.7374	-343.9371	-199.1594;
	12	10	0	0.00053	0	9900	0	0	0.985	0	1	-360	360	152.9926	-184.2540	-152.9926	221.0288;
	11	13	8e-05	0.00034	0	9900	0	0	0	0	1	-360	360	151.0000	-1.2832	-149.2109	8.8868;
	7011	11	0	0.0001923	0	9900	0	0	1	0	1	-360	360	234.0000	30.1171	-234.0000	-19.7168;
	12	21	2e-05	0.00015	0	9900	0	0	0	0	1	-360	360	383.3908	-233.1037	-378.3703	270.7578;
	7012	12	0	0.000312	0	9900	0	0	1	0	1	-360	360	371.9817	545.5197	-371.9817	-422.3097;
	13	20	6e-05	0.00034	0	9900	0	0	0	0	1	-360	360	91.2109	-18.8868	-90.6898	21.8395;
	14	15	0.00014	0.00042	0	9900	0	0	0	0	1	-360	360	187.2127	139.4462	-176.7965	-108.1976;
	16	15	1e-05	0.00038	0	9900	0	0	0.971	0	1	-360	360	171.3187	-347.5407	-164.3869	610.9491;
	15	17	0.000194	0.000311	0	9900	0	0	0.9561	0	1	-360	360	284.5171	-509.7370	-179.8609	677.5106;
	16	42	2e-05	0.00022	0	9900	0	0	0	0	1	-360	360	-179.3529	711.0315	232.0180	-131.7148;
	7017	17	0	0.0001654	0	9900	0	0	0.942	0	1	-360	360	328.4513	1094.1686	-328.4513	-920.6609;
	19	87	0.00013	0.0008	0	9900	0	0	0	0	1	-360	360	1157.5736	656.8845	-847.2139	1253.0216;
	21	20	0	0.00014	0	9900	0	0	0.952	0	1	-360	360	514.3072	-159.0270	-514.3072	201.6671;
	21	24	4e-05	0.00034	0	9900	0	0	0	0	1	-360	360	-212.8735	-112.7321	215.5650	135.6091;
	22	23	0.00052	0.00111	0	9900	0	0	0	0	1	-360	360	-81.0000	-23.0000	85.0054	31.5501;
	24	23	0	0.00064	0	9900	0	0	0.943	0	1	-360	360	77.6288	14.8557	-77.6288	-11.1674;
	23	25	0.00019	0.00039	0	9900	0	0	0	0	1	-360	360	156.6234	47.9881	-151.8466	-38.1830;
	7023	23	0	0.00023	0	9900	0	0	1	0	1	-360	360	185.0000	83.9702	-185.0000	-75.3708;
	24	319	7e-05	0.00068	0	9900	0	0	0	0	1	-360	360	116.8052	-14.2323	-115.7998	24.0000;
	7024	24	0	0.000289	0	9900	0	0	1	0	1	-360	360	409.9997	192.1957	-409.9997	-136.2324;
	25	26	0.00036	0.00071	0	9900	0	0	0	0	1	-360	360	106.8466	26.1830	-102.3787	-17.3714;
	26	27	0.00045	0.0012	0	9900	0	0	0	0	1	-360	360	71.9001	20.7336	-69.0000	-13.0000;
	26	320	0.00043	0.0013	0	9900	0	0	0	0	1	-360	360	2.4787	-12.3622	-2.4000	12.6000;
	33	34	0	0.00063	0	9900	0	0	0	0	1	-360	360	-7.7716	-7.0639	7.7716	14.9384;
	33	40	6e-05	0.00029	0	9900	0	0	0	0	1	-360	360	3.7026	6.0602	-3.3597	-4.4027;
	34	42	1e-05	8e-05	0	9900	0	0	0	0	1	-360	360	-15.4742	-23.7848	15.8291	26.6242;
	36	35	0	0.00047	0	9900	0	0	1.01	0	1	-360	360	88.3231	-190.4443	-88.3231	220.8170;
	35	76	6e-05	0.00014	0	9900	0	0	0	0	1	-360	360	89.6599	-220.5643	-85.7739	229.6317;
	36	88	4e-05	0.00027	0	9900	0	0	0	0	1	-360	360	-82.6887	189.6649	85.1502	-173.0496;
	37	49	0.00017	0.00081	0	9900	0	0	0	0	1	-360	360	-130.4375	110.5282	137.1803	-78.4011;
	37	9001	6e-07	4.6e-06	0	9900	0	75	1.0082	0	1	-360	360	69.3296	-146.6844	-69.3078	146.8514;
	38	41	8e-05	0.00037	0	9900	0	0	0	0	1	-360	360	-1660.8918	1945.3055	2029.2027	-241.8678;
	38	43	0.00032	0.00087	0	9900	0	0	0	0	1	-360	360	1373.7250	-218.1260	-938.0868	1402.5176;
	39	42	6e-06	6.4e-05	0	9900	0	0	0	0	1	-360	360	138.6452	750.5597	-104.0078	-381.0944;
	7039	39	0	0.0003159	0	9900	0	0	0.965	0	1	-360	360	292.2586	2693.3612	-292.2586	-734.9737;
	40	48	0.00026	0.00154	0	9900	0	0	0	0	1	-360	360	0.3296	5.6399	1.2167	3.5193;
	41	42	0	0.00029	0	9900	0	0	0	0	1	-360	360	-521.4928	2987.8944	521.4928	-46.8083;
	41	49	0.00065	0.00191	0	9900	0	0	0	0	1	-360	360	-155.9237	202.4668	202.7194	-64.9592;
	42	46	2e-05	0.00014	0	9900	0	0	0	0	1	-360	360	48.7704	-373.5201	56.2147	1108.4162;
	43	53	0.00013	0.00039	0	9900	0	0	0	0	1	-360	360	1137.6539	-410.0822	-1046.7472	682.8022;
	45	44	0	0.0002	0	9900	0	0	1.008	0	1	-360	360	222.1510	-39.0151	-222.1510	53.0644;
	44	47	0.00027	0.00084	0	9900	0	0	0	0	1	-360	360	79.2117	21.2432	-76.7664	-13.6355;
	7044	44	0	0.0018181	0	9900	0	0	0.942	0	1	-360	360	35.9787	128.7485	-35.9787	-100.7358;
	45	46	0	0.00021	0	9900	0	0	1	0	1	-360	360	82.4775	1527.0129	-82.4775	-859.6158;
	45	60	7e-05	0.00041	0	9900	0	0	0	0	1	-360	360	-435.8316	134.6235	455.6254	-18.6888;
	45	74	9e-05	0.00054	0	9900	0	0	0	0	1	-360	360	-2012.5222	-214.9805	2513.5547	3221.1758;
	46	81	5e-05	0.00042	0	9900	0	0	0	0	1	-360	360	183.5868	-280.3616	-159.6563	481.3782;
	47	113	0.00043	0.00118	0	9900	0	0	0	0	1	-360	360	23.5754	1.6461	-23.2176	-0.6642;
	49	51	0.00031	0.00094	0	9900	0	0	0	0	1	-360	360	48.4885	43.6370	-46.3927	-37.2820;
	7049	49	0	0.000124	0	9900	0	0	1	0	1	-360	360	2487.0399	2657.4601	-2487.0399	-1169.4808;
	51	52	0.00037	0.00109	0	9900	0	0	0	0	1	-360	360	47.7895	33.7226	-45.3737	-26.6056;
	54	55	0.00035	0.00103	0	9900	0	0	0	0	1	-360	360	-10.0000	-1.0000	10.0329	1.0969;
	55	57	0.00065	0.00169	0	9900	0	0	0	0	1	-360	360	12.9673	-3.4893	-12.8590	3.7709;
	7055	55	0	0.0019607	0	9900	0	0	0.942	0	1	-360	360	45.0000	11.3811	-45.0000	-7.6077;
	57	58	0.00046	0.0008	0	9900	0	0	0	0	1	-360	360	79.8678	41.1346	-76.4230	-35.1437;
	7057	57	0	0.0005347	0	9900	0	0	0.95	0	1	-360	360	164.9994	80.5055	-164.9994	-64.9085;
	58	59	9e-05	0.00026	0	9900	0	0	0	0	1	-360	360	62.4270	34.1449	-61.9447	-32.7517;
	59	61	2e-05	0.00013	0	9900	0	0	0	0	1	-360	360	-156.0300	-73.2446	156.6785	77.4599;
	60	62	9e-05	0.00065	0	9900	0	0	0	0	1	-360	360	-479.2916	22.4988	507.4677	180.9956;
	62	61	0	0.00059	0	9900	0	0	0.975	0	1	-360	360	-16.2852	28.5266	16.2852	-27.8739;
	7061	61	0	0.000238	0	9900	0	0	1	0	1	-360	360	399.9795	206.4256	-399.9795	-159.5764;
	62	64	0.00016	0.00105	0	9900	0	0	0	0	1	-360	360	231.0584	30.3207	-221.6872	31.1779;
	62	144	1e-05	7e-05	0	9900	0	0	0	0	1	-360	360	-332.4137	8.1157	333.6061	0.2314;
	7062	62	0	0.0003214	0	9900	0	0	0.95	0	1	-360	360	399.7244	325.5732	-399.7244	-248.7423;
	63	64	0	0.00038	0	9900	0	0	1.017	0	1	-360	360	-221.9724	53.5444	221.9724	-31.2301;
	63	526	0.000265	0.00172	0	9900	0	0	0	0	1	-360	360	151.9867	8.5003	-145.3000	34.9000;
	201	69	0	0.00098	0	9900	0	0	1.03	0	1	-360	360	-40.4075	-13.9274	40.4075	16.7426;
	69	211	0.00051	0.00232	0	9900	0	0	0	0	1	-360	360	-40.5629	-16.7963	42.0391	23.5112;
	70	71	0.00032	0.001	0	9900	0	0	0	0	1	-360	360	179.9739	-28.5086	-174.7149	44.9430;
	70	528	0.0002	0.001234	0	9900	0	0	0	0	1	-360	360	-80.8355	7.9067	81.4885	-3.8774;
	71	73	0.00034	0.00099	0	9900	0	0	0	0	1	-360	360	2079.4321	-93.2765	-1335.5408	2259.3131;
	7071	71	0	0.0006896	0	9900	0	0	0.9565	0	1	-360	360	45.3798	-558.8651	-45.3798	761.5304;
	72	77	0.00018	0.00087	0	9900	0	0	0	0	1	-360	360	-71.0589	-21.9442	72.1694	27.3113;
	72	531	0.000256	0.00193	0	9900	0	0	0	0	1	-360	360	14.0589	2.9442	-14.0000	-2.5000;
	73	74	0	0.000244	0	9900	0	0	1	0	1	-360	360	8926.3812	4020.6333	-8926.3812	3407.6739;
	74	562	0.000286	0.002013	0	9900	0	0	0	0	1	-360	360	-1701.4757	1933.3234	2334.0697	2519.1652;
	76	77	0.00016	0.00043	0	9900	0	0	0	0	1	-360	360	-120.8854	5.3324	123.4105	1.4538;
	77	78	1e-05	6e-05	0	9900	0	0	0	0	1	-360	360	-288.9445	-58.3486	289.8448	63.7504;
	77	552	0.000891	0.002676	0	9900	0	0	0	0	1	-360	360	-10.9875	-1.0622	11.1000	1.4000;
	77	609	0.000782	0.002127	0	9900	0	0	0	0	1	-360	360	30.3521	2.6456	-29.6000	-0.6000;
	78	79	6e-05	0.00022	0	9900	0	0	0	0	1	-360	360	48.1552	14.5692	-48.0000	-14.0000;
	78	84	0	0.00036	0	9900	0	0	0	0	1	-360	360	-338.0000	-78.3196	338.0000	122.6175;
	80	211	0.00022	0.00107	0	9900	0	0	0	0	1	-360	360	-27.7428	-7.0086	27.9758	8.1418;
	81	88	0	0.0002	0	9900	0	0	1	0	1	-360	360	84.0397	-161.4079	-84.0397	173.7317;
	81	195	3.5e-05	0.00033	0	9900	0	0	0	0	1	-360	360	132.2425	-330.3912	-123.9945	408.1577;
	85	86	8e-05	0.00064	0	9900	0	0	0	0	1	-360	360	676.8263	882.2202	-394.0556	1379.9448;
	85	99	0	0.00048	0	9900	0	0	1	0	1	-360	360	934.2250	1303.5487	-934.2250	2225.8273;
	86	87	0.00012	0.00093	0	9900	0	0	0	0	1	-360	360	844.3491	839.9991	-552.2067	1424.1048;
	86	102	0	0.00048	0	9900	0	0	1	0	1	-360	360	-1295.3281	1721.8150	1295.3281	2102.6607;
	86	323	6e-05	0.00048	0	9900	0	0	0	0	1	-360	360	465.1188	-1238.5536	-284.8781	2680.4798;
	87	94	0	0.00046	0	9900	0	0	1.015	0	1	-360	360	244.0460	-31.1208	-244.0460	61.0528;
	89	91	0.00047	0.00119	0	9900	0	0	0	0	1	-360	360	-44.2000	-0.0000	45.0645	2.1888;
	90	92	0.00032	0.00174	0	9900	0	0	0	0	1	-360	360	-66.0000	-0.0000	67.3257	7.2082;
	91	97	0.00022	0.00077	0	9900	0	0	0	0	1	-360	360	108.4244	77.8780	-104.8818	-65.4790;
	92	103	0.00019	0.00144	0	9900	0	0	0	0	1	-360	360	32.1781	1.3496	-32.0000	-0.0000;
	92	105	0.00017	0.00092	0	9900	0	0	0	0	1	-360	360	174.5905	1247.2927	69.0678	71.3284;
	97	100	0.00022	0.00053	0	9900	0	0	0	0	1	-360	360	0.0000	-0.0000	-0.0000	0.0000;
	97	102	0.00038	0.00092	0	9900	0	0	0	0	1	-360	360	172.0380	46.9308	-159.3100	-16.1156;
	98	102	0.00034	0.00121	0	9900	0	0	0	0	1	-360	360	130.1168	75.0800	-122.4439	-47.7734;
	99	107	0.00053	0.00135	0	9900	0	0	0	0	1	-360	360	-513.7926	376.1363	784.9558	314.5624;
	99	108	2e-05	4e-05	0	9900	0	0	0	0	1	-360	360	149.5663	-2258.3025	-20.2955	2516.8441;
	99	109	0.00045	0.00354	0	9900	0	0	0	0	1	-360	360	41.2678	-3.0517	-40.2955	10.7007;
	102	104	0.00043	0.00064	0	9900	0	0	0	0	1	-360	360	-4.2760	4.2486	4.2965	-4.2182;
	104	322	0.00044	0.00124	0	9900	0	0	0	0	1	-360	360	-2.2106	-0.7086	2.2137	0.7173;
	105	107	0.00012	0.00088	0	9900	0	0	0	0	1	-360	360	104.7508	-30.1781	102.5796	1550.6013;
	105	110	0.00157	0.004	0	9900	0	0	0	0	1	-360	360	-2.5413	13.0383	42.8197	89.5818;
	108	324	0.00074	0.00208	0	9900	0	0	0	0	1	-360	360	25.1787	0.1455	-24.7000	1.2000;
	109	114	0.00109	0.00393	0	9900	0	0	0	0	1	-360	360	9.5944	-10.7004	-9.3145	11.7094;
	110	112	0.00142	0.00404	0	9900	0	0	0	0	1	-360	360	75.0362	169.0961	51.4324	190.7160;
	114	207	0	0.00149	0	9900	0	0	0.967	0	1	-360	360	-8.8861	-11.7093	8.8861	12.0546;
	115	122	3.6e-05	0.000199	0	9900	0	0	0	0	1	-360	360	-0.0000	0.0000	0.0000	-0.0000;
	116	120	2e-05	0.001049	0	9900	0	0	0	0	1	-360	360	-117.6545	79.7329	118.0387	-59.5850;
	116	124	5.2e-05	0.000174	0	9900	0	0	1.01	0	1	-360	360	117.6545	-79.7329	-116.6357	83.1420;
	117	118	1e-06	1.8e-05	0	9900	0	0	0	0	1	-360	360	-483.8866	134.1787	484.2185	-128.2035;
	159	117	0	0.00016	0	9900	0	0	1.0506	0	1	-360	360	-483.1493	-60.7808	483.1493	112.6228;
	118	119	0	0.000271	0	9900	0	0	0	0	1	-360	360	-499.0999	-521.1487	499.0999	707.8410;
	118	1201	0	0.006163	0	9900	0	0	0	0	1	-360	360	-0.0000	0.0000	0.0000	-0.0000;
	119	120	0	0.000339	0	9900	0	0	0	0	1	-360	360	795.0387	384.8959	-795.0387	-141.9899;
	119	121	0	0.000582	0	9900	0	0	0	0	1	-360	360	535.0000	238.3480	-535.0000	-55.0000;
	119	1190	1e-05	0.00023	0	9900	0	0	1.0223	0	1	-360	360	100.4164	31.6166	-100.3100	-29.1700;
	120	1200	0	0.00023	0	9900	0	0	0.9284	0	1	-360	360	-100.0000	36.6402	100.0000	-34.1700;
	122	157	5e-06	0.000195	0	9900	0	0	1	0	1	-360	360	-227.8346	-11.7995	228.1635	24.6272;
	123	124	0.00036	0.001076	0	9900	0	0	0	0	1	-360	360	-78.0000	-1.4000	80.2357	8.0823;
	160	124	1.2e-05	0.000396	0	9900	0	0	0.975	0	1	-360	360	0.0000	-0.0000	-0.0000	0.0000;
	125	126	6e-06	0.000197	0	9900	0	0	0	0	1	-360	360	-509.5507	792.6035	514.7698	-621.2428;
	126	132	0.000198	0.001688	0	9900	0	0	0	0	1	-360	360	-285.2987	606.2887	404.0952	406.4813;
	126	158	7.7e-05	0.000538	0	9900	0	0	0	0	1	-360	360	-95.7175	-18.4773	96.6953	25.3096;
	127	128	5.9e-05	0.000577	0	9900	0	0	0	0	1	-360	360	-208.5680	84.5655	212.5263	-45.8554;
	127	134	4.9e-05	0.000336	0	9900	0	0	0	0	1	-360	360	-170.7830	-121.6414	173.6363	141.2066;
	128	130	7.8e-05	0.000773	0	9900	0	0	0	0	1	-360	360	-211.1471	45.8348	216.3151	5.3816;
	129	130	7.6e-05	0.000752	0	9900	0	0	0	0	1	-360	360	-415.0439	250.0694	435.6846	-45.8348;
	129	133	2.1e-05	0.000186	0	9900	0	0	0	0	1	-360	360	418.9424	-250.3856	-413.1562	301.6347;
	130	131	0	0.00018	0	9900	0	0	1.0522	0	1	-360	360	-0.0000	-0.0000	0.0000	0.0000;
	130	132	1.6e-05	0.000164	0	9900	0	0	0	0	1	-360	360	582.2163	496.9411	-568.9500	-360.9615;
	130	150	0	0.00014	0	9900	0	0	1.0522	0	1	-360	360	-569.5846	157.3281	569.5846	-80.7404;
	130	151	1.7e-05	0.000165	0	9900	0	0	0	0	1	-360	360	277.5109	-172.3952	-274.9432	197.3163;
	130	167	7.9e-05	0.000793	0	9900	0	0	0	0	1	-360	360	306.7951	297.1146	-286.4041	-92.4297;
	130	168	7.8e-05	0.000784	0	9900	0	0	0	0	1	-360	360	0.0000	-0.0000	-0.0000	0.0000;
	7130	130	0	0.000193	0	9900	0	0	1	0	1	-360	360	1286.2453	1328.0850	-1286.2453	-730.4969;
	133	137	1.7e-05	0.000117	0	9900	0	0	0	0	1	-360	360	-351.0872	-236.8318	354.2976	258.9266;
	133	169	2.1e-05	0.000186	0	9900	0	0	0	0	1	-360	360	-0.0000	0.0000	-0.0000	0.0000;
	133	171	2e-06	0.000101	0	9900	0	0	0	0	1	-360	360	764.8182	-64.8058	-763.5775	127.4592;
	134	135	4.3e-05	0.000293	0	9900	0	0	0	0	1	-360	360	-113.7993	24.5029	114.4767	-19.8873;
	134	184	3.9e-05	0.000381	0	9900	0	0	0	0	1	-360	360	-59.8819	-165.7059	61.2894	179.4561;
	135	136	9.1e-05	0.000623	0	9900	0	0	0	0	1	-360	360	-283.6591	-21.7048	292.2530	80.5395;
	136	152	5.6e-05	0.00039	0	9900	0	0	0	0	1	-360	360	-347.4911	-98.7376	355.0010	151.0387;
	137	140	1.5e-05	0.000114	0	9900	0	0	0	0	1	-360	360	588.5355	-21.9035	-583.4333	60.6799;
	163	137	1.3e-05	0.000384	0	9900	0	0	0.98	0	1	-360	360	238.7571	-123.2044	-237.7368	153.3424;
	137	188	5e-06	3.4e-05	0	9900	0	0	0	0	1	-360	360	-978.6428	-490.1455	984.5168	530.0891;
	188	138	4e-06	0.000202	0	9900	0	0	0	0	1	-360	360	1023.1403	-41.4914	-1019.1992	240.5129;
	182	139	3e-06	0.000131	0	9900	0	0	1.05	0	1	-360	360	-104.8281	-205.9672	104.9999	213.4668;
	7139	139	0	0.000167	0	9900	0	0	1	0	1	-360	360	699.9998	394.4235	-699.9998	-296.7668;
	140	141	0.00012	0.000836	0	9900	0	0	0	0	1	-360	360	59.4891	-61.1174	-58.6262	67.1292;
	140	182	1.3e-05	8.9e-05	0	9900	0	0	0	0	1	-360	360	136.2767	-114.1861	-135.8705	116.9672;
	141	174	2.4e-05	0.000603	0	9900	0	0	0.975	0	1	-360	360	193.6772	33.0571	-192.8799	-13.0239;
	142	143	6e-05	0.00057	0	9900	0	0	0	0	1	-360	360	-233.6638	-131.6482	238.5456	178.0261;
	142	175	2.4e-05	0.000498	0	9900	0	0	1	0	1	-360	360	177.1638	107.1482	-176.0000	-83.0000;
	143	144	0	0.000833	0	9900	0	0	1.035	0	1	-360	360	333.9421	99.6842	-333.9421	-0.1543;
	143	145	7.5e-05	0.000773	0	9900	0	0	0	0	1	-360	360	-111.4847	121.0867	113.3507	-101.8550;
	143	148	1.3e-05	0.000371	0	9900	0	0	0.9565	0	1	-360	360	145.2937	40.4524	-145.0452	-33.3619;
	145	146	8.5e-05	0.000588	0	9900	0	0	0	0	1	-360	360	-289.6763	-77.9694	297.8712	134.6588;
	145	149	0.000218	0.001511	0	9900	0	0	0	0	1	-360	360	-100.1241	-47.8428	103.0000	67.7761;
	145	180	5e-06	0.000182	0	9900	0	0	1	0	1	-360	360	252.4498	213.6672	-251.8639	-192.3393;
	146	147	7.3e-05	0.000504	0	9900	0	0	0	0	1	-360	360	-213.8712	42.0046	217.0000	-20.4033;
	148	179	0.001371	0.003919	0	9900	0	0	0	0	1	-360	360	82.0452	8.3619	-74.0000	14.6353;
	151	170	1e-05	0.000392	0	9900	0	0	1.05	0	1	-360	360	277.7486	-197.5126	-276.0597	263.7156;
	153	161	5.5e-05	0.000288	0	9900	0	0	0	0	1	-360	360	100.7613	87.7077	-99.8599	-82.9877;
	153	183	2.7e-05	0.000639	0	9900	0	0	1.073	0	1	-360	360	115.2387	4.2489	-114.8591	4.7357;
	154	183	0.000804	0.003054	0	9900	0	0	0	0	1	-360	360	-70.0000	27.1929	74.8591	-8.7357;
	155	156	8e-06	0.000256	0	9900	0	0	1.05	0	1	-360	360	75.2484	-144.2717	-75.0000	152.2209;
	155	161	0.00011	0.000568	0	9900	0	0	0	0	1	-360	360	-63.9158	-63.1127	64.8599	67.9877;
	164	155	9e-06	0.000231	0	9900	0	0	0.956	0	1	-360	360	211.9972	-140.3233	-211.3325	157.3844;
	157	159	8e-06	9.8e-05	0	9900	0	0	0	0	1	-360	360	-351.0395	-0.4535	352.2709	15.5379;
	158	159	2.9e-05	0.000285	0	9900	0	0	0	0	1	-360	360	-97.1282	-25.2654	97.4995	28.9143;
	162	164	2.4e-05	0.000326	0	9900	0	0	0	0	1	-360	360	460.6208	33.6042	-454.3463	51.6244;
	162	165	1.8e-05	0.000245	0	9900	0	0	0	0	1	-360	360	-545.6209	-57.6042	552.2620	147.9978;
	163	164	4.4e-05	0.000514	0	9900	0	0	0	0	1	-360	360	-238.7579	122.8044	242.3488	-80.8570;
	165	166	2e-06	0.000123	0	9900	0	0	0	0	1	-360	360	-552.2621	-147.9978	553.0000	193.3791;
	7166	166	0	0.000154	0	9900	0	0	1	0	1	-360	360	553.0000	353.6641	-553.0000	-289.1908;
	172	174	0.000558	0.00221	0	9900	0	0	0	0	1	-360	360	-26.2705	-0.0375	26.6231	1.4340;
	173	174	0.000807	0.003331	0	9900	0	0	0	0	1	-360	360	-118.4063	25.2226	131.3562	28.2298;
	176	177	0.000251	0.000829	0	9900	0	0	0	0	1	-360	360	223.0000	8.1200	-211.7108	29.1657;
	177	178	0.000222	0.000847	0	9900	0	0	0	0	1	-360	360	267.7108	120.6613	-248.8596	-48.7378;
	178	180	6.1e-05	0.00029	0	9900	0	0	0	0	1	-360	360	-178.5404	-124.8622	182.3639	143.0393;
	181	187	4e-06	8.3e-05	0	9900	0	0	0	0	1	-360	360	-73.4000	0.0000	73.4190	0.3945;
	184	185	2.5e-05	0.000245	0	9900	0	0	0	0	1	-360	360	-198.0599	-196.0569	200.0085	215.1533;
	186	188	7e-06	8.6e-05	0	9900	0	0	0	0	1	-360	360	1140.2000	368.9520	-1131.3364	-260.0568;
	187	188	7e-06	8.6e-05	0	9900	0	0	0	0	1	-360	360	1066.7810	368.7383	-1058.9184	-272.1410;
	189	208	0.00033	0.00095	0	9900	0	0	0	0	1	-360	360	7.0179	2.0516	-7.0000	-2.0000;
	189	210	0	0.00252	0	9900	0	0	1.03	0	1	-360	360	-14.0179	-4.0516	14.0179	4.6303;
	229	190	0	0.000626	0	9900	0	0	0	0	1	-360	360	23.2449	-75.5564	-23.2449	79.4059;
	190	231	4e-06	2.2e-05	0	9900	0	0	0	0	1	-360	360	531.4345	1387.5986	-523.5014	-1343.9666;
	190	240	0	0.000275	0	9900	0	0	0	0	1	-360	360	-33.0944	121.2495	33.0944	-117.3473;
	191	192	3e-05	0.00048	0	9900	0	0	0	0	1	-360	360	824.7958	468.7329	-800.0000	-72.0000;
	225	191	1e-05	0.00061	0	9900	0	0	0	0	1	-360	360	-654.5382	13.5239	659.2038	271.0771;
	193	205	0.00045	0.00063	0	9900	0	0	0	0	1	-360	360	0.0000	0.0000	0.0000	0.0000;
	194	219	3.1e-05	0.000286	0	9900	0	0	0	0	1	-360	360	113.1860	-83.9244	-112.5544	89.7512;
	194	664	2.4e-05	0.000355	0	9900	0	0	0	0	1	-360	360	-113.1836	83.9249	113.6725	-76.6924;
	195	212	8e-06	0.000366	0	9900	0	0	0.985	0	1	-360	360	136.4677	-10.7936	-136.2793	19.4116;
	195	219	3.1e-05	0.000286	0	9900	0	0	0	0	1	-360	360	-1.9001	-398.3955	8.2723	457.1837;
	196	197	0.00014	0.0004	0	9900	0	0	0	0	1	-360	360	-83.5669	-39.3229	84.9371	43.2378;
	196	2040	1e-06	0.0002	0	9900	0	0	1	0	1	-360	360	73.5669	36.3229	-73.5592	-34.7781;
	197	198	0.0001	0.0006	0	9900	0	0	0	0	1	-360	360	-127.9371	-57.2378	130.0537	69.9370;
	198	203	9e-05	0.00046	0	9900	0	0	0	0	1	-360	360	42.1748	14.8932	-42.0000	-14.0000;
	209	198	0.00026	0.00211	0	9900	0	0	1.03	0	1	-360	360	-38.0000	-13.0000	38.4424	16.5904;
	198	210	0.0002	0.00073	0	9900	0	0	0	0	1	-360	360	78.9130	36.8465	-77.4406	-31.4719;
	198	211	0.00034	0.00109	0	9900	0	0	0	0	1	-360	360	71.0806	90.3839	-66.7171	-76.3950;
	199	210	0.0004	0.00102	0	9900	0	0	0	0	1	-360	360	-35.0000	-12.0000	35.6120	13.5606;
	200	210	0.00081	0.00128	0	9900	0	0	0	0	1	-360	360	-27.0000	-12.0000	27.8106	13.2810;
	202	211	0	0.00128	0	9900	0	0	1.01	0	1	-360	360	-37.6247	-12.9541	37.6247	15.6034;
	204	205	0.00046	0.00068	0	9900	0	0	0	0	1	-360	360	0.0144	-4.9787	-0.0000	5.0000;
	204	2040	0.0002	0.00204	0	9900	0	0	1.05	0	1	-360	360	-72.0144	-19.0213	73.5592	34.7781;
	206	207	0.00073	0.00093	0	9900	0	0	0	0	1	-360	360	-12.0002	-1.9999	12.1143	2.1453;
	211	212	3e-05	0.000122	0	9900	0	0	1	0	1	-360	360	-135.7407	21.9605	136.4484	-19.0828;
	213	214	2.5e-05	0.00038	0	9900	0	0	1	0	1	-360	360	272.0000	61.6302	-270.0937	-32.6554;
	214	215	1.7e-05	0.000185	0	9900	0	0	0	0	1	-360	360	254.4247	86.4691	-253.1601	-72.7075;
	214	242	1.5e-05	0.000108	0	9900	0	0	0	0	1	-360	360	-6.3310	-69.8137	6.4069	70.3604;
	215	216	4.5e-05	0.000249	0	9900	0	0	0	0	1	-360	360	206.1607	46.7076	-204.0047	-34.7778;
	216	217	4e-05	0.000497	0	9900	0	0	0	0	1	-360	360	28.0091	-70.2205	-27.7533	73.3983;
	217	219	5e-06	0.000177	0	9900	0	0	0	0	1	-360	360	-72.2317	-148.3944	72.3731	153.4006;
	218	219	1e-05	0.000354	0	9900	0	0	0.97	0	1	-360	360	-18.2726	-28.2346	18.2839	28.6363;
	220	218	3.7e-05	0.000484	0	9900	0	0	0	0	1	-360	360	113.4021	76.6905	-112.7196	-67.7630;
	219	237	3e-06	1.8e-05	0	9900	0	0	0	0	1	-360	360	15.6758	-729.0705	-14.1073	738.4810;
	220	238	1.6e-05	4.6e-05	0	9900	0	0	0	0	1	-360	360	-298.4009	62.2800	299.8642	-58.0731;
	221	223	3e-06	1.3e-05	0	9900	0	0	0	0	1	-360	360	279.0001	306.4568	-278.4849	-304.2240;
	222	237	1.4e-05	0.000514	0	9900	0	0	1	0	1	-360	360	-77.9974	61.8178	78.1232	-57.1999;
	223	224	1.2e-05	0.000195	0	9900	0	0	1	0	1	-360	360	-149.5143	72.2240	149.8483	-66.7955;
	224	225	0.0001	0.00064	0	9900	0	0	0	0	1	-360	360	-237.7167	97.1800	244.5379	-53.5237;
	224	226	1.9e-05	8.1e-05	0	9900	0	0	0	0	1	-360	360	-85.1276	-129.3850	85.5990	131.3945;
	226	231	5e-06	0.000212	0	9900	0	0	0	0	1	-360	360	-85.5994	-131.3939	85.7235	136.6534;
	227	231	9e-06	0.000472	0	9900	0	0	1	0	1	-360	360	-234.9969	-34.0322	235.5043	60.6444;
	228	229	1.9e-05	8.7e-05	0	9900	0	0	0	0	1	-360	360	-223.0000	-148.0000	224.3868	154.3500;
	229	230	1e-05	0.000332	0	9900	0	0	1.02	0	1	-360	360	-343.6316	-124.7936	345.0000	170.2229;
	231	232	2e-06	6.9e-05	0	9900	0	0	0	0	1	-360	360	552.8205	187.5297	-552.1708	-165.1127;
	231	237	1e-06	6e-06	0	9900	0	0	0	0	1	-360	360	-509.4023	537.4501	509.9251	-534.3135;
	232	233	1.7e-05	0.000485	0	9900	0	0	0	0	1	-360	360	104.1870	22.1138	-103.9984	-16.7324;
	234	235	2e-06	0.000259	0	9900	0	0	0	0	1	-360	360	25.5433	61.6931	-25.5348	-60.5931;
	234	236	5e-06	0.00016	0	9900	0	0	1.07	0	1	-360	360	-597.5433	-305.6931	600.0000	384.3083;
	235	238	2e-06	6e-06	0	9900	0	0	0	0	1	-360	360	-243.4652	-96.4069	243.5999	96.8111;
	241	237	5e-06	0.000154	0	9900	0	0	1	0	1	-360	360	575.4234	198.7530	-573.7426	-146.9846;
	238	239	5e-06	0.00016	0	9900	0	0	1.02	0	1	-360	360	-548.4641	-19.2365	550.0000	68.3848;
	240	281	3e-06	4.3e-05	0	9900	0	0	0	0	1	-360	360	-33.0944	-29.3198	33.1000	29.4000;
	242	245	8.2e-05	0.000851	0	9900	0	0	0	0	1	-360	360	64.9971	14.9937	-64.6270	-11.1536;
	242	247	0.000112	0.000723	0	9900	0	0	0	0	1	-360	360	98.5966	6.5506	-97.4875	0.6088;
	243	244	0.000127	0.000355	0	9900	0	0	0	0	1	-360	360	79.5011	40.0371	-78.5146	-37.2798;
	243	245	0.000326	0.001804	0	9900	0	0	0	0	1	-360	360	-3.5011	19.5435	3.6270	-18.8464;
	244	246	0.000195	0.000551	0	9900	0	0	0	0	1	-360	360	78.5146	37.2798	-77.0000	-33.0000;
	247	248	0.000428	0.001215	0	9900	0	0	0	0	1	-360	360	36.4875	-30.6088	-35.4760	33.4802;
	248	249	0.000351	0.001004	0	9900	0	0	0	0	1	-360	360	6.4760	-1.5674	-6.4605	1.6116;
	249	250	0.000616	0.001857	0	9900	0	0	0	0	1	-360	360	-22.5395	-15.6116	23.0000	17.0000;
	9001	9005	8e-06	3.48e-05	0	9900	0	0	0	0	1	-360	360	26.8454	-154.6158	-26.5741	155.7958;
	9001	9006	0.0002439	0.0043682	0	9900	0	0	0.9668	0	1	-360	360	24.2032	17.8907	-23.9189	-12.7982;
	9001	9012	0.0003624	0.0064898	0	9900	0	0	0.9796	0	1	-360	360	16.0892	-9.1787	-15.9249	12.1207;
	9012	9002	0.0007622	0.0043286	0	9900	0	0	0	0	1	-360	360	12.9792	-13.5852	-12.6746	15.3147;
	9002	9021	0.000537	0.0007026	0	9900	0	0	0	0	1	-360	360	7.3533	2.5694	-7.3204	-2.5263;
	9002	9024	0.0050748	0.032202	0	9900	0	0	1	0	1	-360	360	1.4279	0.5461	-1.4159	-0.4700;
	9006	9003	0.0011118	0.0049332	0	9900	0	0	0	0	1	-360	360	21.2111	12.3390	-20.1505	-7.6330;
	9003	9031	0.0073633	0.046724	0	9900	0	0	1	0	1	-360	360	1.5541	0.9270	-1.5046	-0.6126;
	9003	9032	0.0076978	0.048846	0	9900	0	0	1	0	1	-360	360	1.1739	0.6416	-1.1456	-0.4620;
	9003	9033	0.0075732	0.048056	0	9900	0	0	1	0	1	-360	360	1.5942	0.9645	-1.5401	-0.6218;
	9003	9034	0.0013006	0.013912	0	9900	0	0	1	0	1	-360	360	1.3038	-0.2807	-1.2990	0.3315;
	9003	9035	0.0054484	0.034572	0	9900	0	0	1	0	1	-360	360	1.4058	0.7382	-1.3775	-0.5591;
	9003	9036	0.0015426	0.016729	0	9900	0	0	1	0	1	-360	360	2.4660	1.2092	-2.4420	-0.9499;
	9003	9037	0.003849	0.025712	0	9900	0	0	1	0	1	-360	360	1.5734	0.7803	-1.5490	-0.6174;
	9003	9038	0.004412	0.029668	0	9900	0	0	1	0	1	-360	360	2.1774	1.2349	-2.1206	-0.8530;
	9003	9044	0.0007378	0.0006352	0	9900	0	0	0	0	1	-360	360	3.9437	1.6638	-3.9159	-1.6399;
	9004	9041	0.0036614	0.02456	0	9900	0	0	1	0	1	-360	360	0.8473	0.3828	-0.8406	-0.3381;
	9004	9042	0.010593	0.054536	0	9900	0	0	1	0	1	-360	360	0.6842	0.3399	-0.6712	-0.2729;
	9004	9043	0.001567	0.016994	0	9900	0	0	1	0	1	-360	360	1.2966	0.5666	-1.2900	-0.4949;
	9044	9004	0.0003832	0.0002894	0	9900	0	0	0	0	1	-360	360	3.9419	1.6236	-3.9273	-1.6126;
	9005	9051	0.0001578	0.0037486	0	9900	0	0	1.0435	0	1	-360	360	35.0092	-37.3464	-34.3980	51.8657;
	9005	9052	0.0001578	0.0037486	0	9900	0	0	0.9391	0	1	-360	360	27.4164	29.2688	-27.1126	-22.0512;
	9005	9053	0.0001602	0.0038046	0	9900	0	0	1.0435	0	1	-360	360	27.1264	-37.5978	-26.6175	49.6855;
	9005	9054	0	0.00152	0	9900	0	0	1.0435	0	1	-360	360	-48.5163	-93.8626	48.5163	118.9453;
	9005	9055	0	0.008	0	9900	0	0	1.0435	0	1	-360	360	-7.7628	-17.9545	7.7628	22.4790;
	9006	9007	0.0005558	0.0024666	0	9900	0	0	0	0	1	-360	360	1.8721	0.7927	-1.8684	-0.7766;
	9007	9071	0.004412	0.029668	0	9900	0	0	1	0	1	-360	360	0.9260	0.3910	-0.9189	-0.3431;
	9007	9072	0.0030792	0.02057	0	9900	0	0	1	0	1	-360	360	0.9256	0.3762	-0.9207	-0.3433;
	9012	9121	0.0023552	0.0099036	0	9900	0	0	0	0	1	-360	360	3.7835	1.4343	-3.7398	-1.2508;
	9021	9022	0.0044364	0.028152	0	9900	0	0	1	0	1	-360	360	1.6181	0.6163	-1.6045	-0.5300;
	9021	9023	0.011068	0.0095278	0	9900	0	0	0	0	1	-360	360	0.9523	0.3499	-0.9406	-0.3399;
	9023	9025	0.0066688	0.03944	0	9900	0	0	1	0	1	-360	360	0.4704	0.1704	-0.4686	-0.1600;
	9023	9026	0.006113	0.036152	0	9900	0	0	1	0	1	-360	360	0.4703	0.1695	-0.4686	-0.1600;
	9053	9533	0	0.0075	0	9900	0	0	0.9583	0	1	-360	360	1.2983	0.4228	-1.2983	-0.4100;
];

%%-----  OPF Data  -----%%
%% generator cost data
%	1	startup	shutdown	n	x1	y1	...	xn	yn
%	2	startup	shutdown	n	c(n-1)	...	c0
mpc.gencost = [
	2	0	0	3	0.01	40	0;
	2	0	0	3	0.01	40	0;
	2	0	0	3	0.01	40	0;
	2	0	0	3	0.01	40	0;
	2	0	0	3	0.01	40	0;
	2	0	0	3	0.0266667	20	0;
	2	0	0	3	0.0645161	20	0;
	2	0	0	3	0.0344828	20	0;
	2	0	0	3	0.147059	20	0;
	2	0	0	3	0.0854701	20	0;
	2	0	0	3	0.00518135	20	0;
	2	0	0	3	0.0416667	20	0;
	2	0	0	3	0.01	40	0;
	2	0	0	3	0.01	40	0;
	2	0	0	3	0.0355872	20	0;
	2	0	0	3	0.0143678	20	0;
	2	0	0	3	0.119048	20	0;
	2	0	0	3	0.0460829	20	0;
	2	0	0	3	0.0970874	20	0;
	2	0	0	3	0.0268817	20	0;
	2	0	0	3	0.0462963	20	0;
	2	0	0	3	0.01	40	0;
	2	0	0	3	0.0487805	20	0;
	2	0	0	3	0.01	40	0;
	2	0	0	3	0.0438596	20	0;
	2	0	0	3	0.119048	20	0;
	2	0	0	3	0.05	20	0;
	2	0	0	3	0.00833333	20	0;
	2	0	0	3	0.00833333	20	0;
	2	0	0	3	0.0210526	20	0;
	2	0	0	3	0.00506842	20	0;
	2	0	0	3	0.0235849	20	0;
	2	0	0	3	0.0367647	20	0;
	2	0	0	3	0.1	20	0;
	2	0	0	3	0.0222222	20	0;
	2	0	0	3	0.04	20	0;
	2	0	0	3	0.0330033	20	0;
	2	0	0	3	0.0289855	20	0;
	2	0	0	3	0.0333333	20	0;
	2	0	0	3	0.0166667	20	0;
	2	0	0	3	0.04	20	0;
	2	0	0	3	0.0181818	20	0;
	2	0	0	3	0.0173783	20	0;
	2	0	0	3	0.0588235	20	0;
	2	0	0	3	0.119048	20	0;
	2	0	0	3	0.0214133	20	0;
	2	0	0	3	0.0160514	20	0;
	2	0	0	3	0.00826446	20	0;
	2	0	0	3	0.042735	20	0;
	2	0	0	3	0.0268817	20	0;
	2	0	0	3	0.030303	20	0;
	2	0	0	3	0.0540541	20	0;
	2	0	0	3	0.0243902	20	0;
	2	0	0	3	0.02	20	0;
	2	0	0	3	0.27027	20	0;
	2	0	0	3	0.01	40	0;
	2	0	0	3	0.222222	20	0;
	2	0	0	3	0.0606061	20	0;
	2	0	0	3	0.025	20	0;
	2	0	0	3	0.025	20	0;
	2	0	0	3	0.0862069	20	0;
	2	0	0	3	0.00773994	20	0;
	2	0	0	3	0.0142857	20	0;
	2	0	0	3	0.0180832	20	0;
	2	0	0	3	0.01	40	0;
	2	0	0	3	0.01	40	0;
	2	0	0	3	0.01	40	0;
	2	0	0	3	0.2	20	0;
	2	0	0	3	1.25	20	0;
];
